* SPICE export by:      S-Edit 2020.1.4
* Export time:          Thu Dec  3 13:12:04 2020
* Design path:          /home/NIS/projects/XT018-19/A0/work/tt18-vsao/lib.defs
* Library:              my_lib
* Cell:                 nwell_res
* Testbench:            Spice
* View:                 schematic
* Export as:            subcircuit definition
* Export mode:          hierarchical
* Exclude empty:        no
* Exclude .model:       no
* Exclude .hdl:         no
* Exclude .end:         no
* Expand paths:         no
* Wrap lines:           no
* Exclude simulator commands:  no
* Exclude global pins:         no
* Exclude instance locations:  no
* Control property name(s):    CDL

*************** Subcircuits ***************
.subckt nwell_res t1 t2 t3 
RR4 t1 t2 5834.3 $SUB=t3 $[rnw] $w=2e-06 $l=1e-05 m=1 $ $x=1440 $y=595 $w=60 $h=30 $r=270
.ends



