** CALIBRE LAYOUT NETLIST **
** CALIBRE VERSION: v2020.2_14.12    Thu Apr 2 15:39:27 PDT 2020
** LAYOUT NAME: resistor_test2.calibre.db (resistor_test2)
** NETLIST FILE: netlistLAYOUT
** GENERATED: Wed Dec  2 17:02:21 2020


.SUBCKT resistor_test2 T2 T1 
RR0 T2 T1 RNP1 
.ENDS
