** CALIBRE SOURCE NETLIST **
** CALIBRE VERSION: v2020.2_14.12    Thu Apr 2 15:39:27 PDT 2020
** SOURCE NAME: /home/NIS/projects/XT018-19/A0/work/tt18-vsao/verification/Rule_deck/Resistor/rnp1_8strips/SL1/resistor_8strip.src.net (resistor_8strip)
** NETLIST FILE: netlistSOURCE
** GENERATED: Wed Dec  2 17:03:45 2020


.SUBCKT resistor_8strip T1 T2 
RRR2 T1 T2 RNP1 
.ENDS
