* SPICE export by:      S-Edit 2020.1.4
* Export time:          Sat Nov 28 11:48:44 2020
* Design path:          /home/NIS/projects/XT018-19/A0/work/tt18-vsao/lib.defs
* Library:              my_lib
* Cell:                 resistor_8strip
* Testbench:            Spice
* View:                 schematic
* Export as:            subcircuit definition
* Export mode:          hierarchical
* Exclude empty:        no
* Exclude .model:       no
* Exclude .hdl:         no
* Exclude .end:         no
* Expand paths:         no
* Wrap lines:           no
* Exclude simulator commands:  no
* Exclude global pins:         no
* Exclude instance locations:  no
* Control property name(s):    CDL

*************** Subcircuits ***************
.subckt resistor_8strip t1 t2 
RR2 t1 t2 16641.5 $[rnp1] $w=2e-06 $l=0.00010208 m=1 $ $x=1600 $y=600 $w=60 $h=20 $r=270
.ends



