** CALIBRE SOURCE NETLIST **
** CALIBRE VERSION: v2020.2_14.12    Thu Apr 2 15:39:27 PDT 2020
** SOURCE NAME: /home/NIS/projects/XT018-19/A0/work/tt18-vsao/verification/Rule_deck/Capacitor/cmm5t/cap_test.src.net (cap_test)
** NETLIST FILE: netlistSOURCE
** GENERATED: Tue Dec  8 15:27:03 2020


.SUBCKT cap_test T1 T2 
CCC1 T1 T2 CMM5T 
.ENDS
