** CALIBRE SOURCE NETLIST **
** CALIBRE VERSION: v2020.2_14.12    Thu Apr 2 15:39:27 PDT 2020
** SOURCE NAME: /home/NIS/projects/XT018-19/A0/work/tt18-vsao/verification/Rule_deck/Resistor/rnp1_8strips/SL2/resistor_test3.src.net (resistor_test3)
** NETLIST FILE: netlistSOURCE
** GENERATED: Wed Dec  2 17:05:12 2020


.SUBCKT resistor_test3 T1 T2 
RRR2 T1 T2 RNP1 
.ENDS
