** CALIBRE SOURCE NETLIST **
** CALIBRE VERSION: v2020.2_14.12    Thu Apr 2 15:39:27 PDT 2020
** SOURCE NAME: /home/NIS/projects/XT018-19/A0/work/tt18-vsao/verification/Rule_deck/Transistor/pe5/pe5_test.src.net (pe5_test)
** NETLIST FILE: netlistSOURCE
** GENERATED: Mon Dec  7 15:00:05 2020


.SUBCKT pe5_test B D G S 
MMC1 D G S B PE5 l=5e-07 w=2e-06 
.ENDS
