** CALIBRE LAYOUT NETLIST **
** CALIBRE VERSION: v2020.2_14.12    Thu Apr 2 15:39:27 PDT 2020
** LAYOUT NAME: resistor_test.calibre.db (resistor_test)
** NETLIST FILE: netlistLAYOUT
** GENERATED: Wed Dec  2 17:00:52 2020


.SUBCKT resistor_test T1 T2 
RR0 T1 T2 RNP1 
.ENDS
