** CALIBRE LAYOUT NETLIST **
** CALIBRE VERSION: v2020.2_14.12    Thu Apr 2 15:39:27 PDT 2020
** LAYOUT NAME: res45.calibre.db (res45)
** NETLIST FILE: netlistLAYOUT
** GENERATED: Wed Dec  2 17:10:08 2020


.SUBCKT res45 T1 T2 
RR0 T1 T2 RNP1 
.ENDS
