** CALIBRE SOURCE NETLIST **
** CALIBRE VERSION: v2020.2_14.12    Thu Apr 2 15:39:27 PDT 2020
** SOURCE NAME: /home/NIS/projects/XT018-19/A0/work/tt18-vsao/verification/Rule_deck/Transistor/ne/ne_test.src.net (ne_test)
** NETLIST FILE: netlistSOURCE
** GENERATED: Sat Dec  5 15:32:58 2020


.SUBCKT ne_test B D G S 
MMC1 D G S B NE l=1.8e-07 w=2e-06 
.ENDS
